OpenDSS_files/IEEETestCases/13Bus/IEEE13Nodeckt_VLN_elem.Txt

NODE-GROUND VOLTAGES BY CIRCUIT ELEMENT

Power Delivery Elements

Bus       (node ref)  Phase    Magnitude, kV (pu)    Angle

ELEMENT = "Vsource.SOURCE"
SOURCEBUS  (  1)    1           66.394 (       1) /_   30.0
SOURCEBUS  (  2)    2           66.395 (       1) /_  -90.0
SOURCEBUS  (  3)    3           66.392 (       1) /_  150.0
------------
SOURCEBUS  (  0)    0                0 (       0) /_    0.0
SOURCEBUS  (  0)    0                0 (       0) /_    0.0
SOURCEBUS  (  0)    0                0 (       0) /_    0.0

ELEMENT = "Transformer.SUB"
SOURCEBUS  (  1)    1           66.394 (       1) /_   30.0
SOURCEBUS  (  2)    2           66.395 (       1) /_  -90.0
SOURCEBUS  (  3)    3           66.392 (       1) /_  150.0
SOURCEBUS  (  0)    0                0 (       0) /_    0.0
------------
650        (  4)    1           2.4016 (  0.9999) /_    0.0
650        (  5)    2           2.4017 (       1) /_ -120.0
650        (  6)    3           2.4016 (  0.9999) /_  120.0
650        (  0)    0                0 (       0) /_    0.0

ELEMENT = "Transformer.REG1"
650        (  4)    1           2.4016 (  0.9999) /_    0.0
650        (  0)    0                0 (       0) /_    0.0
------------
RG60       (  7)    1           2.5364 (   1.056) /_    0.0
RG60       (  0)    0                0 (       0) /_    0.0

ELEMENT = "Transformer.REG2"
650        (  5)    2           2.4017 (       1) /_ -120.0
650        (  0)    0                0 (       0) /_    0.0
------------
RG60       (  8)    2           2.4916 (   1.037) /_ -120.0
RG60       (  0)    0                0 (       0) /_    0.0

ELEMENT = "Transformer.REG3"
650        (  6)    3           2.4016 (  0.9999) /_  120.0
650        (  0)    0                0 (       0) /_    0.0
------------
RG60       (  9)    3           2.5364 (   1.056) /_  120.0
RG60       (  0)    0                0 (       0) /_    0.0

ELEMENT = "Transformer.XFM1"
633        ( 10)    1           2.4289 (   1.011) /_   -2.6
633        ( 11)    2           2.4667 (   1.027) /_ -121.8
633        ( 12)    3           2.4055 (   1.002) /_  117.8
633        (  0)    0                0 (       0) /_    0.0
------------
634        ( 13)    1          0.27357 (  0.9872) /_   -3.3
634        ( 14)    2          0.27946 (   1.008) /_ -122.3
634        ( 15)    3          0.27226 (  0.9824) /_  117.3
634        (  0)    0                0 (       0) /_    0.0

ELEMENT = "Capacitor.CAP1"
675        ( 24)    1           2.3448 (  0.9763) /_   -5.6
675        ( 25)    2           2.5042 (   1.043) /_ -122.6
675        ( 26)    3           2.3128 (  0.9629) /_  116.0
------------
675        (  0)    0                0 (       0) /_    0.0
675        (  0)    0                0 (       0) /_    0.0
675        (  0)    0                0 (       0) /_    0.0

ELEMENT = "Capacitor.CAP2"
611        ( 27)    3           2.3077 (  0.9608) /_  115.7
------------
611        (  0)    0                0 (       0) /_    0.0

ELEMENT = "Line.650632"
RG60       (  7)    1           2.5364 (   1.056) /_    0.0
RG60       (  8)    2           2.4916 (   1.037) /_ -120.0
RG60       (  9)    3           2.5364 (   1.056) /_  120.0
------------
632        ( 32)    1           2.4362 (   1.014) /_   -2.5
632        ( 33)    2           2.4713 (   1.029) /_ -121.8
632        ( 34)    3           2.4118 (   1.004) /_  117.8

ELEMENT = "Line.632670"
632        ( 32)    1           2.4362 (   1.014) /_   -2.5
632        ( 33)    2           2.4713 (   1.029) /_ -121.8
632        ( 34)    3           2.4118 (   1.004) /_  117.8
------------
670        ( 29)    1           2.4114 (   1.004) /_   -3.5
670        ( 30)    2           2.4783 (   1.032) /_ -122.0
670        ( 31)    3           2.3771 (  0.9897) /_  117.1

ELEMENT = "Line.670671"
670        ( 29)    1           2.4114 (   1.004) /_   -3.5
670        ( 30)    2           2.4783 (   1.032) /_ -122.0
670        ( 31)    3           2.3771 (  0.9897) /_  117.1
------------
671        ( 16)    1           2.3605 (  0.9828) /_   -5.4
671        ( 17)    2           2.4985 (    1.04) /_ -122.4
671        ( 18)    3           2.3174 (  0.9649) /_  116.0

ELEMENT = "Line.671680"
671        ( 16)    1           2.3605 (  0.9828) /_   -5.4
671        ( 17)    2           2.4985 (    1.04) /_ -122.4
671        ( 18)    3           2.3174 (  0.9649) /_  116.0
------------
680        ( 35)    1           2.3605 (  0.9828) /_   -5.4
680        ( 36)    2           2.4985 (    1.04) /_ -122.4
680        ( 37)    3           2.3174 (  0.9649) /_  116.0

ELEMENT = "Line.632633"
632        ( 32)    1           2.4362 (   1.014) /_   -2.5
632        ( 33)    2           2.4713 (   1.029) /_ -121.8
632        ( 34)    3           2.4118 (   1.004) /_  117.8
------------
633        ( 10)    1           2.4289 (   1.011) /_   -2.6
633        ( 11)    2           2.4667 (   1.027) /_ -121.8
633        ( 12)    3           2.4055 (   1.002) /_  117.8

ELEMENT = "Line.632645"
632        ( 34)    3           2.4118 (   1.004) /_  117.8
632        ( 33)    2           2.4713 (   1.029) /_ -121.8
------------
645        ( 38)    3           2.4072 (   1.002) /_  117.8
645        ( 19)    2           2.4492 (    1.02) /_ -121.9

ELEMENT = "Line.645646"
645        ( 38)    3           2.4072 (   1.002) /_  117.8
645        ( 19)    2           2.4492 (    1.02) /_ -121.9
------------
646        ( 21)    3           2.4024 (       1) /_  117.8
646        ( 20)    2            2.445 (   1.018) /_ -122.0

ELEMENT = "Line.692675"
692        ( 23)    1           2.3605 (  0.9828) /_   -5.4
692        ( 39)    2           2.4985 (    1.04) /_ -122.4
692        ( 22)    3           2.3174 (  0.9649) /_  116.0
------------
675        ( 24)    1           2.3448 (  0.9763) /_   -5.6
675        ( 25)    2           2.5042 (   1.043) /_ -122.6
675        ( 26)    3           2.3128 (  0.9629) /_  116.0

ELEMENT = "Line.671684"
671        ( 16)    1           2.3605 (  0.9828) /_   -5.4
671        ( 18)    3           2.3174 (  0.9649) /_  116.0
------------
684        ( 40)    1           2.3558 (  0.9809) /_   -5.4
684        ( 41)    3           2.3125 (  0.9628) /_  115.9

ELEMENT = "Line.684611"
684        ( 41)    3           2.3125 (  0.9628) /_  115.9
------------
611        ( 27)    3           2.3077 (  0.9608) /_  115.7

ELEMENT = "Line.684652"
684        ( 40)    1           2.3558 (  0.9809) /_   -5.4
------------
652        ( 28)    1           2.3425 (  0.9753) /_   -5.3

ELEMENT = "Line.671692"
671        ( 16)    1           2.3605 (  0.9828) /_   -5.4
671        ( 17)    2           2.4985 (    1.04) /_ -122.4
671        ( 18)    3           2.3174 (  0.9649) /_  116.0
------------
692        ( 23)    1           2.3605 (  0.9828) /_   -5.4
692        ( 39)    2           2.4985 (    1.04) /_ -122.4
692        ( 22)    3           2.3174 (  0.9649) /_  116.0

= = = = = = = = = = = = = = = = = = =  = = = = = = = = = = =  = =

Power Conversion Elements

Bus       (node ref)  Phase    Magnitude, kV (pu)    Angle

ELEMENT = "Load.671"
671        ( 16)    1           2.3605 (  0.9828) /_   -5.4
671        ( 17)    2           2.4985 (    1.04) /_ -122.4
671        ( 18)    3           2.3174 (  0.9649) /_  116.0

ELEMENT = "Load.634A"
634        ( 13)    1          0.27357 (  0.9872) /_   -3.3
634        (  0)    0                0 (       0) /_    0.0

ELEMENT = "Load.634B"
634        ( 14)    2          0.27946 (   1.008) /_ -122.3
634        (  0)    0                0 (       0) /_    0.0

ELEMENT = "Load.634C"
634        ( 15)    3          0.27226 (  0.9824) /_  117.3
634        (  0)    0                0 (       0) /_    0.0

ELEMENT = "Load.645"
645        ( 19)    2           2.4492 (    1.02) /_ -121.9
645        (  0)    0                0 (       0) /_    0.0

ELEMENT = "Load.646"
646        ( 20)    2            2.445 (   1.018) /_ -122.0
646        ( 21)    3           2.4024 (       1) /_  117.8

ELEMENT = "Load.692"
692        ( 22)    3           2.3174 (  0.9649) /_  116.0
692        ( 23)    1           2.3605 (  0.9828) /_   -5.4

ELEMENT = "Load.675A"
675        ( 24)    1           2.3448 (  0.9763) /_   -5.6
675        (  0)    0                0 (       0) /_    0.0

ELEMENT = "Load.675B"
675        ( 25)    2           2.5042 (   1.043) /_ -122.6
675        (  0)    0                0 (       0) /_    0.0

ELEMENT = "Load.675C"
675        ( 26)    3           2.3128 (  0.9629) /_  116.0
675        (  0)    0                0 (       0) /_    0.0

ELEMENT = "Load.611"
611        ( 27)    3           2.3077 (  0.9608) /_  115.7
611        (  0)    0                0 (       0) /_    0.0

ELEMENT = "Load.652"
652        ( 28)    1           2.3425 (  0.9753) /_   -5.3
652        (  0)    0                0 (       0) /_    0.0

ELEMENT = "Load.670A"
670        ( 29)    1           2.4114 (   1.004) /_   -3.5
670        (  0)    0                0 (       0) /_    0.0

ELEMENT = "Load.670B"
670        ( 30)    2           2.4783 (   1.032) /_ -122.0
670        (  0)    0                0 (       0) /_    0.0

ELEMENT = "Load.670C"
670        ( 31)    3           2.3771 (  0.9897) /_  117.1
670        (  0)    0                0 (       0) /_    0.0

